&initialization_parameters
        nx = 31, ny = 31, nz=32,
        dx = 2.5, dy = 2.5, dz = 2.5,

        fft_method = 'temperton-algorithm',

        ocean = .T.,
        idealized_diurnal = .F.,
        reference_state = 'single_value',

        initializing_actions = 'set_constant_profiles',

        latitude = 55.6,

        ug_surface =0.0, vg_surface = 0.0,
        pt_surface                 = 293.0,
        pt_vertical_gradient       = 1.0,
        pt_vertical_gradient_level = 0.0,
        sa_surface                 = 35.0,
        sa_vertical_gradient       = 0.0,

        use_top_fluxes= .T.,
        use_surface_fluxes = .F.,
        constant_flux_layer= 'none',

        top_momentumflux_u = 0.0,
        top_momentumflux_v = 0.0,

        top_heatflux = 1.78e-5,
        top_salinityflux = 0.0,

        bc_uv_b = 'neumann', bc_uv_t = 'neumann',
        bc_pt_b = 'neumann', bc_pt_t = 'neumann',
        bc_p_b  = 'neumann', bc_p_t  = 'neumann',
        bc_s_b  = 'initial_gradient', bc_s_t  = 'neumann',
        bc_sa_t = 'neumann', /

&runtime_parameters
        end_time = 10800.0,
        create_disturbances = .T.,
!        disturbance_level_b = -4.,
        dt_disturb = 150.,
        dt_run_control = 0.0,
        dt_data_output = 3600.0,
        dt_dopr = 3600.0,
        dt_data_output_av = 3600.,
        section_xy = 32,

        data_output = 'shf*_xy', 'e', 'pt', 'sa', 'u', 'v', 'w', 'rho_ocean', 'alpha_T',

        data_output_pr = 'e','e*', '#pt', '#sa', 'p', 'hyp', 'km', 'kh', 'l',
              '#u','#v','w','prho','w"u"','w*u*','w"v"','w*v*','w"pt"','w*pt*',
              'w"sa"','w*sa*','w*e*','u*2','v*2','w*2','pt*2','w*3','Sw',
              'w*2pt*','w*pt*2','w*u*u*:dz','w*p*:dz','rho_ocean','alpha_T', 
	      'u*dp*dz','v*dp*dz','pt*dp*dz','sa*dp*dz','w*2T*','w*2sa*',
              'sa*2','eps', 'w*2T*', 'w*2S*', 'pt*sa*', 'beta_S',
	      'u*dp*dx','u*dp*dy','v*dp*dx', 'v*dp*dy', 'w*dp*dx',
	      'w*dp*dy', w*dp*dz','v*u*', /


