&initialization_parameters
        nx = 31, ny = 31, nz=32,
        dx = 2.5, dy = 2.5, dz = 2.5,

        fft_method = 'temperton-algorithm',

        ocean = .F.,
        idealized_diurnal = .F.,

        initializing_actions = 'set_constant_profiles',

        latitude = 55.6,

        humidity = .T.,

        ug_surface =0.0, vg_surface = 0.0,
        pt_surface                 = 293.0,
        pt_vertical_gradient       = 3.0,
        pt_vertical_gradient_level = 0.0,

        bc_uv_b = 'dirichlet', bc_uv_t = 'neumann',
        bc_pt_t = 'neumann',
        bc_p_b  = 'neumann', bc_p_t  = 'neumann',
        bc_s_b  = 'initial_gradient', bc_s_t  = 'neumann', /

&runtime_parameters
        dt_coupling = 600,
        end_time = 3600.0,
        create_disturbances = .T.,
        disturbance_energy_limit = 1.0e-2,
!        disturbance_level_b = -4.,
        dt_disturb = 150.,
        dt_run_control = 0.0,
        dt_data_output = 3600.0,
        dt_dopr = 3600.0,
        dt_data_output_av = 3600.,

        data_output = 'e', 'pt', 'u', 'v', 'w',

        data_output_pr = 'e','e*', '#pt', 'p', 'hyp', 'km', 'kh', 'l',
              '#u','#v','w','w"u"','w*u*','w"v"','w*v*','w"pt"','w*pt*',
              'w*e*','u*2','v*2','w*2','pt*2','w*3',
              'w*2pt*','w*pt*2','w*u*u*:dz','w*p*:dz', /


