&initialization_parameters
        nx = 64, ny = 64, nz=256,
        dx = 2.5, dy = 2.5, dz = 0.5,
        dz_stretch_factor = 1.08,
        dz_stretch_level = 0.0,

        fft_method = 'temperton-algorithm',

        ocean = .T.,

        initializing_actions = 'set_constant_profiles',
 
        latitude = 55.6,
           
        momentum_advec = 'pw-scheme',
        scalar_advec = 'pw-scheme', 

        ug_surface =0.0, vg_surface = 0.0,
        pt_surface                 = 293.0,
        pt_vertical_gradient       = 1.0
        sa_surface                 = 35.0
        sa_vertical_gradient       = 0.0

        use_top_fluxes= .T.,
        use_surface_fluxes = .F.,
        constant_flux_layer= .F.,
        
        top_momentumflux_u = 0.0,
        top_momentumflux_v = 0.0,
        
        top_heatflux = -1.78E-5,
        top_salinityflux = 0.0,

        bc_uv_b = 'neumann', bc_uv_t = 'neumann', 
        bc_pt_b = 'neumann', bc_pt_t = 'neumann',
        bc_p_b  = 'neumann', bc_p_t  = 'neumann',
        bc_s_b  = 'initial_gradient', bc_s_t  = 'neumann',
        bc_sa_t = 'neumann', /

&runtime_parameters
        end_time = 3600.0,
        create_disturbances = .T.,
        dt_disturb = 60.0,
        disturbance_energy_limit = 1.0e-4,
        disturbance_amplitude = 0.25e-1,
        dt_run_control = 0.0,
        dt_data_output = 600.0,
        dt_dopr = 600.0,
        dt_data_output_av = 3600.,

        data_output_pr = 'e','e*', '#pt',  /
       

